1MMB - prepared_molecule1
                    3D
 Schrodinger Suite 2023-1.
 63 64  0  0  1  0            999 V2000
   27.7895   60.1136   52.9864 C   0  0  1  0  0  0
   26.8184   59.5376   54.0376 C   0  0  0  0  0  0
   29.0667   60.6533   53.7075 C   0  0  0  0  0  0
   28.6848   61.2338   56.3654 C   0  0  0  0  0  0
   29.6787   60.5323   57.0393 C   0  0  0  0  0  0
   29.2549   60.0134   58.2667 C   0  0  0  0  0  0
   27.9293   60.3132   58.5403 C   0  0  0  0  0  0
   28.0434   59.0849   51.8213 C   0  0  1  0  0  0
   26.7301   58.7016   51.0630 C   0  0  0  0  0  0
   26.8493   57.6488   49.9274 C   0  0  0  0  0  0
   27.3200   56.2752   50.4301 C   0  0  0  0  0  0
   25.5186   57.5167   49.1784 C   0  0  0  0  0  0
   29.0953   59.6193   50.8272 C   0  0  0  0  0  0
   31.4524   59.4916   50.0741 C   0  0  2  0  0  0
   31.4475   58.9383   48.6406 C   0  0  0  0  0  0
   31.8700   59.4217   46.2680 C   0  0  0  0  0  0
   32.7387   59.0765   50.8134 C   0  0  0  0  0  0
   32.8590   59.6175   52.2286 C   0  0  0  0  0  0
   32.4941   58.8126   53.3290 C   0  0  0  0  0  0
   32.5160   59.3361   54.6138 C   0  0  0  0  0  0
   32.8800   60.6602   54.8215 C   0  0  0  0  0  0
   33.2158   61.4729   53.7465 C   0  0  0  0  0  0
   33.1927   60.9698   52.4515 C   0  0  0  0  0  0
   25.6388   60.1622   54.1770 N   0  0  0  0  0  0
   30.2948   59.0194   50.8309 N   0  0  0  0  0  0
   31.7882   59.7957   47.6709 N   0  0  0  0  0  0
   27.1510   58.5545   54.6987 O   0  0  0  0  0  0
   24.6912   59.5795   55.0222 O   0  0  0  0  0  0
   28.8241   60.5748   50.1007 O   0  0  0  0  0  0
   31.1769   57.7548   48.4457 O   0  0  0  0  0  0
   28.8308   62.0793   54.8286 S   0  0  0  0  0  0
   27.2093   61.2681   57.2856 S   0  0  0  0  0  0
   27.3209   60.9835   52.5261 H   0  0  0  0  0  0
   29.7878   61.0141   52.9747 H   0  0  0  0  0  0
   29.5823   59.8477   54.2328 H   0  0  0  0  0  0
   30.6788   60.4043   56.6554 H   0  0  0  0  0  0
   29.8884   59.4370   58.9244 H   0  0  0  0  0  0
   27.3537   60.0326   59.4098 H   0  0  0  0  0  0
   28.4364   58.1745   52.2753 H   0  0  0  0  0  0
   26.2843   59.6116   50.6554 H   0  0  0  0  0  0
   25.9940   58.3252   51.7724 H   0  0  0  0  0  0
   27.5803   57.9976   49.1969 H   0  0  0  0  0  0
   27.2773   55.5233   49.6421 H   0  0  0  0  0  0
   28.3502   56.3187   50.7713 H   0  0  0  0  0  0
   26.7087   55.9175   51.2553 H   0  0  0  0  0  0
   25.5797   56.7812   48.3755 H   0  0  0  0  0  0
   24.7069   57.2212   49.8436 H   0  0  0  0  0  0
   25.2537   58.4710   48.7303 H   0  0  0  0  0  0
   31.4259   60.5811   50.0355 H   0  0  0  0  0  0
   32.2700   60.2544   45.6902 H   0  0  0  0  0  0
   32.5262   58.5621   46.1260 H   0  0  0  0  0  0
   30.8835   59.1734   45.8760 H   0  0  0  0  0  0
   33.6062   59.4211   50.2482 H   0  0  0  0  0  0
   32.8135   57.9894   50.8495 H   0  0  0  0  0  0
   32.2084   57.7831   53.1810 H   0  0  0  0  0  0
   32.2485   58.7119   55.4537 H   0  0  0  0  0  0
   32.8959   61.0644   55.8229 H   0  0  0  0  0  0
   33.4834   62.5056   53.9159 H   0  0  0  0  0  0
   33.4284   61.6168   51.6186 H   0  0  0  0  0  0
   25.2410   60.8190   53.5194 H   0  0  0  0  0  0
   30.4504   58.2195   51.4301 H   0  0  0  0  0  0
   31.9734   60.7637   47.9050 H   0  0  0  0  0  0
   25.0133   58.6771   55.1223 H   0  0  0  0  0  0
  1  2  1  0  0  0
  1  3  1  0  0  0
  1  8  1  0  0  0
  1 33  1  0  0  0
  2 24  1  0  0  0
  2 27  2  0  0  0
  3 31  1  0  0  0
  3 34  1  0  0  0
  3 35  1  0  0  0
  4  5  2  0  0  0
  4 31  1  0  0  0
  4 32  1  0  0  0
  5  6  1  0  0  0
  5 36  1  0  0  0
  6  7  2  0  0  0
  6 37  1  0  0  0
  7 32  1  0  0  0
  7 38  1  0  0  0
  8  9  1  0  0  0
  8 13  1  0  0  0
  8 39  1  0  0  0
  9 10  1  0  0  0
  9 40  1  0  0  0
  9 41  1  0  0  0
 10 11  1  0  0  0
 10 12  1  0  0  0
 10 42  1  0  0  0
 11 43  1  0  0  0
 11 44  1  0  0  0
 11 45  1  0  0  0
 12 46  1  0  0  0
 12 47  1  0  0  0
 12 48  1  0  0  0
 13 25  1  0  0  0
 13 29  2  0  0  0
 14 15  1  0  0  0
 14 17  1  0  0  0
 14 25  1  0  0  0
 14 49  1  0  0  0
 15 26  1  0  0  0
 15 30  2  0  0  0
 16 26  1  0  0  0
 16 50  1  0  0  0
 16 51  1  0  0  0
 16 52  1  0  0  0
 17 18  1  0  0  0
 17 53  1  0  0  0
 17 54  1  0  0  0
 18 19  2  0  0  0
 18 23  1  0  0  0
 19 20  1  0  0  0
 19 55  1  0  0  0
 20 21  2  0  0  0
 20 56  1  0  0  0
 21 22  1  0  0  0
 21 57  1  0  0  0
 22 23  2  0  0  0
 22 58  1  0  0  0
 23 59  1  0  0  0
 24 28  1  0  0  0
 24 60  1  0  0  0
 25 61  1  0  0  0
 26 62  1  0  0  0
 28 63  1  0  0  0
M  END
> <s_m_entry_id>
9

> <s_m_entry_name>
1mmb.1_mol2

> <s_pdb_PDB_TITLE>
COMPLEX OF BB94 WITH THE CATALYTIC DOMAIN OF MATRIX METALLOPROTEINASE-8

> <s_pdb_PDB_ID>
1MMB

> <r_pdb_PDB_CRYST1_a>
33.67

> <r_pdb_PDB_CRYST1_b>
69.64

> <r_pdb_PDB_CRYST1_c>
73.4

> <r_pdb_PDB_CRYST1_alpha>
90

> <r_pdb_PDB_CRYST1_beta>
90

> <r_pdb_PDB_CRYST1_gamma>
90

> <s_pdb_PDB_CRYST1_Space_Group>
P 21 21 21

> <i_pdb_PDB_CRYST1_z>
4

> <s_pdb_PDB_CLASSIFICATION>
HYDROLASE (METALLOPROTEASE)

> <s_pdb_PDB_DEPOSITION_DATE>
23-AUG-95

> <s_pdb_PDB_format_version>
3.15

> <r_pdb_PDB_R>
0.189

> <r_pdb_PDB_RESOLUTION>
2.1

> <s_pdb_PDB_EXPDTA>
X-RAY DIFFRACTION

> <s_pdb_PDB_REMARK_350_Biomolecule_1_Transform_1_Chains>
A

> <s_pdb_PDB_REMARK_350_Biomolecule_1_Transform_1_Matrix_1>
1.000000 0.000000 0.000000   0.000000;0.000000 1.000000 0.000000   0.000000;0.000000 0.000000 1.000000   0.000000

> <s_m_Source_Path>
C:\Users\12267\Desktop\pdb\proteinprep_5TH2A

> <s_m_Source_File>
proteinprep_5TH2A-out.maegz

> <i_m_Source_File_Index>
1

> <b_ppw_prepared>
1

> <s_ppw_prepared_with_version>
2023-1

> <b_ppw_created_disulfur>
1

> <r_ppw_preprocess_pH>
7

> <s_ppw_het_states>
eJztk0uOwjAQRK8SZR1F/la35yqIGyB2rBB3H7sNlGPNAWYRFqhSKvt12+7n6tef5VJ/PmS3Le66LU16ykAZKRNlpgSlUCpl+UqQBtJAGkgDaSANpIE0kAbShDQhTUgT0oQ0IU1IE9KENCFNSVOjNf0+4X64/n0e3QizITRa2Ko7GrWawAvqyE8i2h6JifhnQoc6ki3JNLIZAwXzErGETgaGXtQShUaxhJsNbmqr7QKOhn7rgJWOIdENTMa4hzUneTYKN81zwroFrwG9uaEOM4TdwroFuzVpDy/wDfbn5/kS+x6fRC/dsNVxe3KlVvJc0abU7epSDa8Ih69Yv8IeS4mvbbk/brf+b2/uHOtzrM+x/ndj7b0exro1x7HGNMjX1y8URJQf

> <r_i_Potential_Energy-S-OPLS>
-556.233486860693

> <r_i_RMS_Derivative-S-OPLS>
0.1174722325952

> <r_i_Max_Derivative-S-OPLS>
1.15201759749939

> <r_i_Stretch_Energy-S-OPLS>
75.4991319398009

> <r_i_Bend_Energy-S-OPLS>
337.690881270157

> <r_i_LJ-14_Energy-S-OPLS>
749.613466530454

> <r_i_El-14_Energy-S-OPLS>
273.485990085369

> <r_i_Van_der_Waals_Energy-S-OPLS>
-1505.21673949395

> <r_i_Electrostatic_Energy-S-OPLS>
-825.785959461258

> <r_i_Dihedral_Energy-S-OPLS>
318.654300475694

> <r_i_target_temperature>
298

> <s_m_job_name>
proteinprep_5TH2A

> <s_m_subgroup_title>
proteinprep_5TH2A-out->1MMB - prepared_split_by_molecule

> <s_m_subgroupid>
proteinprep_5TH2A-out->1MMB - prepared_split_by_molecule

> <b_m_subgroup_collapsed>
0

$$$$
